Version 4
SHEET 1 1944 680
WIRE 272 48 208 48
WIRE 336 48 272 48
WIRE 272 96 272 48
WIRE -608 192 -608 64
WIRE -480 192 -608 192
WIRE -416 192 -480 192
WIRE -256 192 -352 192
WIRE -16 192 -176 192
WIRE -608 208 -608 192
WIRE -16 224 -16 192
WIRE -480 240 -480 192
WIRE -784 304 -816 304
WIRE -688 304 -704 304
WIRE -608 464 -608 336
WIRE -480 464 -480 304
WIRE -480 464 -608 464
WIRE -16 464 -16 304
WIRE -16 464 -480 464
WIRE -608 480 -608 464
FLAG -608 -16 Vdd
FLAG -816 304 Vg
FLAG 272 96 0
FLAG 208 -32 Vdd
FLAG 336 -32 Vg
FLAG -16 192 Vout
FLAG -608 480 0
SYMBOL EPCGaN -688 304 R0
SYMATTR InstName U1
SYMATTR Value EPC2037
SYMBOL ind -624 -32 R0
SYMATTR InstName L1
SYMATTR Value 10µ
SYMATTR SpiceLine Rser=0.1
SYMBOL ind -272 208 R270
WINDOW 0 32 56 VTop 2
WINDOW 3 5 56 VBottom 2
SYMATTR InstName L2
SYMATTR Value 1.174µ
SYMATTR SpiceLine Rser=0.1
SYMBOL cap -352 176 R90
WINDOW 0 0 32 VBottom 2
WINDOW 3 32 32 VTop 2
SYMATTR InstName C1
SYMATTR Value 33.165p
SYMATTR SpiceLine Rser=0.1
SYMBOL res -32 208 R0
SYMATTR InstName R1
SYMATTR Value {RLoad}
SYMBOL voltage 208 -48 R0
WINDOW 123 0 0 Left 0
WINDOW 39 0 0 Left 0
SYMATTR InstName V1
SYMATTR Value 1
SYMBOL voltage 336 -48 R0
WINDOW 123 24 52 Left 2
WINDOW 39 24 132 Left 2
SYMATTR Value2 AC 1
SYMATTR SpiceLine Rser=20
SYMATTR InstName V2
SYMATTR Value PULSE(0 5 0 0.1n 0.1n 18.3n 36.873n)
SYMBOL cap -496 240 R0
SYMATTR InstName C2
SYMATTR Value 45p
SYMATTR SpiceLine Rser=0.1
SYMBOL res -688 288 R90
WINDOW 0 0 56 VBottom 2
WINDOW 3 32 56 VTop 2
SYMATTR InstName R2
SYMATTR Value 1
TEXT 192 160 Left 2 !.tran 0 36.8u 27.6u
TEXT 192 184 Left 2 !;ac dec 4 1K 1G
TEXT 192 288 Left 2 !;.step param L 1.5u 1.9u 20n
TEXT 720 152 Left 2 !.meas Pout AVG (I(R1)*V(Vout))
TEXT 720 184 Left 2 !.meas Pin AVG (I(V1)*V(Vdd))
TEXT 720 248 Left 2 !.meas eff param Pout/Pin
TEXT 192 216 Left 2 !.four 27120KHz I(R1)
TEXT 192 384 Left 2 !;.step param R 10 350 20
TEXT 192 256 Left 2 !;.step param L2 1u 100u 5u
TEXT 192 320 Left 2 !;.step param C 10p 50p 2p
TEXT 192 352 Left 2 !;.step param C1 40p 50p 1p
TEXT 192 416 Left 2 !;.step param t 35.8n 37.8n 0.2n
TEXT 720 320 Left 2 !.param f=27.12Meg RLoad=20 Ql=10 pi=3.1415
TEXT 720 216 Left 2 !.meas Pgate AVG (I(V2)*V(Vg))
TEXT 720 280 Left 2 !.meas PAE param Pout/(Pin+Pgate)
TEXT 720 360 Left 2 !.meas C1 param 0.1836/(2*3.1415*f*RLoad)
TEXT 720 392 Left 2 !.meas L param Ql*Rload/(2*pi*f)
TEXT 720 424 Left 2 !.meas C param 1/((Ql-1.1525)*2*pi*f*RLoad)
TEXT 720 456 Left 2 !.meas Pout_th 0.5768*V(Vdd)*V(Vdd)/RLoad
