Version 4
SHEET 1 1364 680
WIRE 480 -128 416 -128
WIRE 544 -128 480 -128
WIRE 672 -128 672 -160
WIRE 672 -128 544 -128
WIRE 480 -80 480 -128
WIRE -448 -64 -448 -112
WIRE -448 144 -448 64
WIRE -256 144 -448 144
WIRE -80 144 -176 144
WIRE 144 144 -16 144
WIRE -448 160 -448 144
WIRE 144 176 144 144
WIRE -448 320 -448 288
WIRE 144 320 144 256
WIRE 144 320 -448 320
WIRE -448 352 -448 320
FLAG -448 352 0
FLAG -448 -192 Vdd
FLAG -528 256 Vinp
FLAG -528 32 Vinn
FLAG 480 -80 0
FLAG 416 -208 Vdd
FLAG 544 -208 Vinp
FLAG 672 -240 Vinn
FLAG 144 144 Vout
SYMBOL EPCGaN -528 256 R0
SYMATTR InstName U1
SYMATTR Value EPC2012C
SYMBOL EPCGaN -528 32 R0
SYMATTR InstName U2
SYMATTR Value EPC2012C
SYMBOL ind -464 -208 R0
SYMATTR InstName L1
SYMATTR Value 5m
SYMBOL ind -272 160 R270
WINDOW 0 32 56 VTop 2
WINDOW 3 5 56 VBottom 2
SYMATTR InstName L2
SYMATTR Value 2.947µ
SYMATTR SpiceLine Rser=0.1
SYMBOL cap -16 128 R90
WINDOW 0 0 32 VBottom 2
WINDOW 3 32 32 VTop 2
SYMATTR InstName C1
SYMATTR Value 11.7p
SYMATTR SpiceLine Rser=0.1
SYMBOL res 128 160 R0
SYMATTR InstName R1
SYMATTR Value 50
SYMBOL voltage 416 -224 R0
WINDOW 123 0 0 Left 0
WINDOW 39 0 0 Left 0
SYMATTR InstName V1
SYMATTR Value 5
SYMBOL voltage 544 -224 R0
WINDOW 123 24 52 Left 2
WINDOW 39 0 0 Left 0
SYMATTR Value2 AC 1
SYMATTR InstName V2
SYMATTR Value PULSE(0 5 0 0.1n 0.1n 18.2n 36.8n 100)
SYMBOL voltage 672 -256 R0
WINDOW 123 24 52 Left 2
WINDOW 39 0 0 Left 0
SYMATTR Value2 AC 1 180
SYMATTR InstName V3
SYMATTR Value PULSE(0 5 18.4n 0.1n 0.1n 18.2n 36.8n 100)
TEXT 712 24 Left 2 !.tran 0 3.6u 2u
TEXT 712 48 Left 2 !;ac dec 4 1K 1G
TEXT 864 160 Left 2 !;.step param L 1u 4u 0.2u
TEXT 376 136 Left 2 !.meas Pout RMS I(R1)*V(Vout)
TEXT 376 168 Left 2 !.meas Pin RMS I(V1)*V(Vdd)
TEXT 376 200 Left 2 !.meas eff param Pout/Pin
TEXT 376 232 Left 2 !.four 27000KHz I(R1)
TEXT 864 208 Left 2 !;.step param R 10 50 5
TEXT 864 136 Left 2 !;.step dec param L2 10u 10m 5
TEXT 864 184 Left 2 !;.step param C 11p 12p 50f
