Version 4
SHEET 1 1216 680
WIRE 352 -112 288 -112
WIRE 416 -112 352 -112
WIRE 352 -64 352 -112
WIRE -464 64 -464 -64
WIRE -336 64 -464 64
WIRE -272 64 -336 64
WIRE -112 64 -208 64
WIRE 128 64 -32 64
WIRE -464 80 -464 64
WIRE 128 96 128 64
WIRE -336 112 -336 64
WIRE -464 240 -464 208
WIRE -336 240 -336 176
WIRE -336 240 -464 240
WIRE 128 240 128 176
WIRE 128 240 -336 240
WIRE -464 272 -464 240
FLAG -464 272 0
FLAG -464 -144 Vdd
FLAG -544 176 Vinp
FLAG 352 -64 0
FLAG 288 -192 Vdd
FLAG 416 -192 Vinp
FLAG 128 64 Vout
SYMBOL EPCGaN -544 176 R0
SYMATTR InstName U1
SYMATTR Value EPC2012
SYMBOL ind -480 -160 R0
SYMATTR InstName L1
SYMATTR Value 100µ
SYMATTR SpiceLine Rser=1
SYMBOL ind -128 80 R270
WINDOW 0 32 56 VTop 2
WINDOW 3 5 56 VBottom 2
SYMATTR InstName L2
SYMATTR Value 3.49µ
SYMATTR SpiceLine Rser=0.1
SYMBOL cap -208 48 R90
WINDOW 0 0 32 VBottom 2
WINDOW 3 32 32 VTop 2
SYMATTR InstName C1
SYMATTR Value 178p
SYMATTR SpiceLine Rser=0.1
SYMBOL res 112 80 R0
SYMATTR InstName R1
SYMATTR Value 14.7
SYMBOL voltage 288 -208 R0
WINDOW 123 0 0 Left 0
WINDOW 39 0 0 Left 0
SYMATTR InstName V1
SYMATTR Value 5
SYMBOL voltage 416 -208 R0
WINDOW 123 24 52 Left 2
WINDOW 39 0 0 Left 0
SYMATTR Value2 AC 1
SYMATTR InstName V2
SYMATTR Value PULSE(0 5 0 0.05n 0.05n 73.7n 147.5n)
SYMBOL cap -352 112 R0
SYMATTR InstName C2
SYMATTR Value 167p
SYMATTR SpiceLine Rser=0.1
TEXT 584 40 Left 2 !.tran 0 147.5u 73.75u
TEXT 584 64 Left 2 !;ac dec 4 1K 1G
TEXT 736 176 Left 2 !;.step param L 1.5u 1.9u 20n
TEXT 248 152 Left 2 !.meas Pout AVG (I(R1)*V(Vout))
TEXT 248 184 Left 2 !.meas Pin AVG (I(V1)*V(Vdd))
TEXT 248 216 Left 2 !.meas eff param Pout/Pin
TEXT 248 248 Left 2 !.four 27170KHz I(R1)
TEXT 736 248 Left 2 !;.step param R 10 350 20
TEXT 736 152 Left 2 !;.step dec param L2 1u 10m 5
TEXT 736 200 Left 2 !;.step param C 10p 50p 2p
TEXT 736 224 Left 2 !;.step param C2 0.1p 3.1p 0.2p
TEXT 744 280 Left 2 !;.step param t 35.8n 37.8n 0.2n
