Version 4
SHEET 1 1488 680
WIRE 464 -192 400 -192
WIRE 528 -192 464 -192
WIRE 656 -192 656 -224
WIRE 656 -192 528 -192
WIRE 464 -144 464 -192
WIRE -288 48 -288 -32
WIRE -96 48 -288 48
WIRE 80 48 32 48
WIRE 160 48 80 48
WIRE 304 48 160 48
WIRE -288 64 -288 48
WIRE 80 80 80 48
WIRE 160 80 160 48
WIRE 304 80 304 48
WIRE -288 224 -288 192
WIRE 80 224 80 144
WIRE 80 224 -288 224
WIRE 160 224 160 160
WIRE 160 224 80 224
WIRE 304 224 304 160
WIRE 304 224 160 224
WIRE -288 256 -288 224
FLAG -288 256 0
FLAG 464 -144 0
FLAG 400 -272 Vdd
FLAG -288 -112 Vdd
FLAG 528 -272 Vinp
FLAG -368 160 Vinp
FLAG 656 -304 Vinn
FLAG 0 128 Vinn
FLAG 304 48 Vout
SYMBOL EPCGaN -368 160 R0
SYMATTR InstName U1
SYMATTR Value EPC2012C
SYMBOL EPCGaN 0 128 R270
SYMATTR InstName U2
SYMATTR Value EPC2012C
SYMBOL ind -304 -128 R0
SYMATTR InstName L1
SYMATTR Value 10m
SYMBOL voltage 400 -288 R0
WINDOW 123 0 0 Left 0
WINDOW 39 0 0 Left 0
SYMATTR InstName V1
SYMATTR Value 5
SYMBOL voltage 528 -288 R0
WINDOW 123 24 52 Left 2
WINDOW 39 0 0 Left 0
SYMATTR Value2 AC 1
SYMATTR InstName V2
SYMATTR Value PULSE(0 5 0 0.1n 0.1n 18.2n 36.8n)
SYMBOL ind 144 64 R0
SYMATTR InstName L2
SYMATTR Value 29.4n
SYMATTR SpiceLine Rser=0.1
SYMBOL cap 64 80 R0
SYMATTR InstName C1
SYMATTR Value 950p
SYMATTR SpiceLine Rser=0.1
SYMBOL res 288 64 R0
SYMATTR InstName R1
SYMATTR Value 20
SYMBOL voltage 656 -320 R0
WINDOW 123 24 52 Left 2
WINDOW 39 0 0 Left 0
SYMATTR Value2 AC 1 180
SYMATTR InstName V3
SYMATTR Value PULSE(0 5 18.4n 0.1n 0.1n 18.2n 36.8n)
TEXT 880 -56 Left 2 !.tran 0 3.68u 0.368u
TEXT 880 -32 Left 2 !;ac dec 4 1K 1G
TEXT 1032 80 Left 2 !;.step param L 20n 35n 1n
TEXT 544 56 Left 2 !.meas Pout AVG (I(R1)*V(Vout))
TEXT 544 88 Left 2 !.meas Pin AVG (I(V1)*V(Vdd))
TEXT 544 120 Left 2 !.meas eff param Pout/Pin
TEXT 544 152 Left 2 !.four 27000KHz I(R1)
TEXT 1032 128 Left 2 !;.step param R 10 50 5
TEXT 1032 56 Left 2 !;.step param L2 1m 2m 0.1m
TEXT 1032 104 Left 2 !;.step param C 900p 1.2n 20p
