Version 4
SHEET 1 1236 680
WIRE 224 -160 224 -192
WIRE 224 -160 96 -160
WIRE 352 -160 224 -160
WIRE 96 -128 96 -160
WIRE 352 -128 352 -160
WIRE 752 -96 656 -96
WIRE 848 -96 752 -96
WIRE 752 -64 752 -96
WIRE 96 16 96 -48
WIRE 192 16 96 16
WIRE 352 16 352 -48
WIRE 352 16 272 16
WIRE 96 112 96 16
WIRE 160 112 96 112
WIRE 176 112 160 112
WIRE 272 112 256 112
WIRE 352 112 352 16
WIRE 352 112 272 112
WIRE 96 128 96 112
WIRE 352 128 352 112
WIRE 160 160 160 112
WIRE 176 160 160 160
WIRE 272 160 272 112
WIRE 272 160 240 160
WIRE 96 288 96 256
WIRE 352 288 352 256
WIRE 96 400 96 368
WIRE 240 400 96 400
WIRE 352 400 352 368
WIRE 352 400 240 400
WIRE 240 416 240 400
FLAG 224 -192 Vdd
FLAG -64 224 Vg+
FLAG 512 224 Vg-
FLAG 752 -64 0
FLAG 656 -176 Vdd
FLAG 752 -176 Vg+
FLAG 848 -176 Vg-
FLAG 96 16 Vo+
FLAG 352 16 Vo-
FLAG 240 416 0
SYMBOL EPCGaN 16 224 R0
WINDOW 3 15 -89 Left 0
SYMATTR Value EPC2037
SYMATTR InstName U1
SYMBOL EPCGaN 432 224 M0
WINDOW 3 8 -92 Left 0
SYMATTR Value EPC2037
SYMATTR InstName U2
SYMBOL ind 160 128 R270
WINDOW 0 32 56 VTop 2
WINDOW 3 66 15 VBottom 2
SYMATTR InstName L1
SYMATTR Value {L}
SYMATTR SpiceLine Rser=0.1
SYMBOL res 288 0 R90
WINDOW 0 0 56 VBottom 2
WINDOW 3 32 56 VTop 2
SYMATTR InstName R1
SYMATTR Value 20
SYMBOL ind 80 -144 R0
SYMATTR InstName L2
SYMATTR Value 1µ
SYMATTR SpiceLine Rser=0.1
SYMBOL ind 336 -144 R0
SYMATTR InstName L3
SYMATTR Value 1µ
SYMATTR SpiceLine Rser=0.1
SYMBOL voltage 656 -192 R0
WINDOW 123 0 0 Left 0
WINDOW 39 0 0 Left 0
SYMATTR InstName V1
SYMATTR Value 2
SYMBOL voltage 848 -192 R0
WINDOW 3 24 96 Invisible 2
SYMATTR Value PULSE(0 5 18.4365n 0.1n 0.1n 18.3n 36.873n)
SYMATTR Value2 AC 1
SYMATTR SpiceLine Rser=20
SYMATTR InstName V3
SYMBOL voltage 752 -192 R0
WINDOW 3 24 96 Invisible 2
SYMATTR Value PULSE(0 5 0 0.1n 0.1n 18.3n 36.873n)
SYMATTR Value2 AC 1
SYMATTR SpiceLine Rser=20
SYMATTR InstName V2
SYMBOL cap 240 144 R90
WINDOW 0 62 1 VBottom 2
WINDOW 3 32 32 VTop 2
SYMATTR InstName C1
SYMATTR Value {C}
SYMBOL res 32 208 R90
WINDOW 0 0 56 VBottom 2
WINDOW 3 32 56 VTop 2
SYMATTR InstName R2
SYMATTR Value 1
SYMBOL res 528 208 R90
WINDOW 0 0 56 VBottom 2
WINDOW 3 32 56 VTop 2
SYMATTR InstName R3
SYMATTR Value 1
SYMBOL ind 80 272 R0
SYMATTR InstName L4
SYMATTR Value 0.5n
SYMBOL ind 336 272 R0
SYMATTR InstName L5
SYMATTR Value 0.5n
TEXT 600 224 Left 2 !.include CMCD_param.txt
TEXT 608 32 Left 2 !.tran 0 3.68u 2.76u
TEXT 608 64 Left 2 !;.ac dec 500 10Meg 50Meg
